Version 4
SHEET 1 1840 680
WIRE 1408 -304 752 -304
WIRE 1312 -240 576 -240
WIRE 576 -224 576 -240
WIRE 576 -224 -256 -224
WIRE 1408 -224 1408 -304
WIRE 1056 -208 816 -208
WIRE 816 -176 816 -208
WIRE 816 -176 256 -176
WIRE 1056 -176 1056 -208
WIRE 1056 -176 880 -176
WIRE 1056 -112 1056 -176
WIRE 816 -64 816 -176
WIRE 1408 -64 1408 -144
WIRE 1408 -64 1344 -64
WIRE 880 -48 880 -176
WIRE 912 -48 880 -48
WIRE 1312 -48 1312 -240
WIRE 1312 -48 1200 -48
WIRE 752 32 752 -304
WIRE 784 32 752 32
WIRE 912 32 864 32
WIRE 1344 32 1344 -64
WIRE 1344 32 1200 32
WIRE 1408 32 1408 -64
WIRE 816 48 816 16
WIRE 256 80 256 -176
WIRE 480 80 256 80
WIRE 576 80 576 -224
WIRE 576 80 544 80
WIRE 608 80 576 80
WIRE 720 80 688 80
WIRE 784 80 784 32
WIRE 784 80 720 80
WIRE 800 80 784 80
WIRE 912 112 896 112
WIRE 1296 112 1200 112
WIRE 720 144 720 80
WIRE 784 144 784 80
WIRE 1296 144 1296 112
WIRE -256 160 -256 -224
WIRE 208 160 -256 160
WIRE 1408 160 1408 112
WIRE 256 208 256 176
WIRE 1056 208 1056 176
WIRE 1056 208 960 208
WIRE 1056 224 1056 208
WIRE 1056 224 992 224
WIRE 1296 224 1296 208
WIRE 1296 224 1056 224
WIRE 1056 240 1056 224
WIRE 720 256 720 224
WIRE 784 256 784 208
WIRE 784 256 720 256
WIRE 256 320 256 288
WIRE 720 320 720 256
WIRE 720 320 256 320
WIRE 864 336 864 32
WIRE 864 336 768 336
WIRE 256 368 256 320
WIRE 768 384 768 336
WIRE 896 384 896 112
WIRE 896 384 880 384
WIRE 880 416 880 384
WIRE 880 528 880 496
WIRE 960 528 960 208
WIRE 960 528 880 528
WIRE 768 592 768 448
WIRE 992 592 992 224
WIRE 992 592 768 592
FLAG 800 80 Vout
FLAG 256 368 0
FLAG 1056 240 0
FLAG 1408 160 0
FLAG 816 48 0
SYMBOL schottky 544 64 R90
WINDOW 0 0 32 VBottom 2
WINDOW 3 32 32 VTop 2
SYMATTR InstName D1
SYMATTR Value 1N5819
SYMATTR Description Diode
SYMATTR Type diode
SYMBOL ind 704 64 R90
WINDOW 0 5 56 VBottom 2
WINDOW 3 32 56 VTop 2
SYMATTR InstName L1
SYMATTR Value 220µ
SYMBOL res 704 128 R0
SYMATTR InstName RL
SYMATTR Value 12
SYMBOL cap 768 144 R0
SYMATTR InstName Cout
SYMATTR Value 22µ
SYMBOL res 240 192 R0
SYMATTR InstName Rsh
SYMATTR Value 0.1
SYMBOL PowerProducts\\LT3580 1056 32 R0
SYMATTR InstName U1
SYMBOL voltage 816 -80 R0
WINDOW 3 24 44 Left 2
WINDOW 123 0 0 Left 0
WINDOW 39 0 0 Left 0
SYMATTR InstName V3
SYMATTR Value 15
SYMBOL cap 1280 144 R0
SYMATTR InstName C2
SYMATTR Value 22n
SYMBOL res 864 400 R0
SYMATTR InstName R2
SYMATTR Value 100k
SYMBOL cap 752 384 R0
SYMATTR InstName C3
SYMATTR Value 10n
SYMBOL res 1392 -240 R0
SYMATTR InstName R3
SYMATTR Value 87.6k
SYMBOL res 1392 16 R0
SYMATTR InstName R4
SYMATTR Value 10k
SYMBOL nmos 208 80 R0
SYMATTR InstName M1
SYMATTR Value MyMOSFET
TEXT -88 -144 Left 2 !.MODEL MyMOSFET NMOS (VTO=2.0 KP=50u LAMBDA=0.01 RD=0.05 RG=5 IS=1p)
TEXT 16 528 Left 2 !.tran 0 100m 10m
